%chk=D:\Desktop\1.chk
# hf/3-21g geom=connectivity

Title Card Required

0 1




25 0.00000 0.00000 0.00000 
8 -2.94643 -2.52078 -2.25145 
27 -0.27764 -1.37514 -3.20850 
8 -0.03320 -2.72408 -2.32742 
27 -1.47857 -4.01403 -1.96763 
27 -3.24995 -1.47884 -0.98903 
27 -2.80569 -0.20878 3.69643 
8 -1.74565 -1.39791 3.72756 
8 -0.07764 -2.65722 2.51645 
27 -1.47857 -1.49366 2.80357 
8 -0.00027 -0.13722 2.50246 
8 -1.31217 -1.48597 0.56503 
27 -0.12949 -4.00250 2.46680 
27 -2.74808 -3.85820 1.40357 
8 -1.27861 -4.02226 0.02729 
8 -3.14204 -2.37812 2.44679 
8 -3.04995 -0.27037 2.67614 
8 -4.41654 -1.47473 0.06901 
8 -2.94643 2.97922 -2.25145 
8 -0.03320 2.77592 -2.32742 
8 -1.52205 1.47838 -4.52742 
8 -2.94890 0.44815 -2.26151 
27 -1.47857 1.48597 -1.96763 
8 -0.20000 0.17051 -1.92742 
27 -4.02857 1.47143 -2.12236 
8 -4.20658 1.46393 -0.00207 
8 -0.07764 2.84278 2.51645 
8 -1.31217 4.01403 0.56503 
8 -1.52205 1.47838 3.97258 
27 -0.12949 1.49750 2.46680 
27 -2.74808 1.64180 1.40357 
8 -1.27861 1.47774 0.02729 
8 2.55357 -2.52078 -2.25145 
27 2.25005 -1.47884 -0.98903 
27 1.47143 -4.02857 -2.12236 
8 1.29342 -4.03607 -0.00207 
27 2.69431 -0.20878 3.69643 
8 4.18783 -1.48597 0.56503 
27 2.75192 -3.85820 1.40357 
8 1.45676 -1.28597 3.63840 
8 2.35796 -2.37812 2.44679 
8 2.45005 -0.27037 2.67614 
27 1.54029 -1.44180 2.79643 
27 0.19616 -2.73893 0.33690 
8 1.08346 -1.47473 0.06901 
8 2.55357 2.97922 -2.25145 
8 2.55110 0.44815 -2.26151 
27 4.02143 1.48597 -1.96763 
27 2.25005 4.02116 -0.98903 
8 1.64908 1.47857 -4.28655 
27 1.47143 1.47143 -2.12236 
8 1.29342 1.46393 -0.00207 
27 2.75192 1.64180 1.40357 
8 4.22139 1.47774 0.02729 
8 2.35796 3.12188 2.44679 
27 0.19616 2.76107 0.33690 
8 1.08346 4.02527 0.06901 
8 1.64908 1.47857 4.21345 
